
  -OEChem-11302216483D

 17 16  0     0  0  0  0  0  0999 V2000
    0.3602   -0.0459   -2.0826 N   0  3  0  0  0  0  0  0  0  0  0  0
    0.7630   -0.3923   -0.6777 C   0  0  0  0  0  0  0  0  0  0  0  0
    0.1819    1.4342   -2.2673 C   0  0  0  0  0  0  0  0  0  0  0  0
    1.3014   -0.6294   -3.0975 C   0  0  0  0  0  0  0  0  0  0  0  0
    1.3635   -2.1521   -2.8947 C   0  0  0  0  0  0  0  0  0  0  0  0
    0.1269   -2.5921   -3.0685 O   0  5  0  0  0  0  0  0  0  0  0  0
   -0.5589   -0.4793   -2.2447 H   0  0  0  0  0  0  0  0  0  0  0  0
    0.8660   -1.4706   -0.6444 H   0  0  0  0  0  0  0  0  0  0  0  0
    1.7019    0.1164   -0.4925 H   0  0  0  0  0  0  0  0  0  0  0  0
   -0.0319   -0.0354   -0.0330 H   0  0  0  0  0  0  0  0  0  0  0  0
   -0.1053    1.5824   -3.3017 H   0  0  0  0  0  0  0  0  0  0  0  0
   -0.5960    1.7388   -1.5769 H   0  0  0  0  0  0  0  0  0  0  0  0
    1.1377    1.8902   -2.0369 H   0  0  0  0  0  0  0  0  0  0  0  0
    0.8969   -0.3397   -4.0701 H   0  0  0  0  0  0  0  0  0  0  0  0
    2.2590   -0.1319   -2.9268 H   0  0  0  0  0  0  0  0  0  0  0  0
    2.1464   -2.5244   -3.5752 H   0  0  0  0  0  0  0  0  0  0  0  0
    1.8387   -2.3158   -1.9139 H   0  0  0  0  0  0  0  0  0  0  0  0
  1  2  1  0  0  0  0
  1  3  1  0  0  0  0
  1  4  1  0  0  0  0
  4  5  1  0  0  0  0
  5  6  1  0  0  0  0
  1  7  1  0  0  0  0
  2  8  1  0  0  0  0
  2  9  1  0  0  0  0
  2 10  1  0  0  0  0
  3 11  1  0  0  0  0
  3 12  1  0  0  0  0
  3 13  1  0  0  0  0
  4 14  1  0  0  0  0
  4 15  1  0  0  0  0
  5 16  1  0  0  0  0
  5 17  1  0  0  0  0
M  CHG  2   1   1   6  -1
M  END
$$$$
